Version 4
SHEET 1 1748 896
WIRE 112 -112 -208 -112
WIRE 288 -112 112 -112
WIRE 384 -112 288 -112
WIRE 848 -112 384 -112
WIRE 912 -112 848 -112
WIRE 288 -80 288 -112
WIRE -528 -48 -624 -48
WIRE -208 -48 -208 -112
WIRE -208 -48 -272 -48
WIRE 112 -16 112 -112
WIRE -624 16 -624 -48
WIRE -208 16 -208 -48
WIRE 288 32 288 0
WIRE 288 32 176 32
WIRE 912 64 912 -112
WIRE 288 112 288 32
WIRE 112 128 112 80
WIRE -624 144 -624 96
WIRE -400 144 -400 48
WIRE -400 144 -624 144
WIRE -272 144 -400 144
WIRE -208 144 -208 80
WIRE -208 144 -272 144
WIRE 496 144 336 144
WIRE 848 144 848 -112
WIRE 848 144 720 144
WIRE -272 192 -272 144
WIRE 496 208 448 208
WIRE 912 208 912 144
WIRE 912 208 720 208
WIRE 112 224 112 208
WIRE 112 224 48 224
WIRE 48 256 48 224
WIRE 112 256 112 224
WIRE 912 256 912 208
WIRE 288 272 288 192
WIRE 496 272 288 272
WIRE 752 272 720 272
WIRE 864 272 752 272
WIRE 384 336 384 -112
WIRE 496 336 384 336
WIRE 816 336 720 336
WIRE 864 368 864 272
WIRE 912 368 912 336
WIRE 912 368 864 368
WIRE -208 400 -208 144
WIRE 48 400 48 320
WIRE 48 400 -208 400
WIRE 112 400 112 320
WIRE 112 400 48 400
WIRE 336 400 336 144
WIRE 336 400 112 400
WIRE 448 400 448 208
WIRE 752 400 752 272
WIRE 752 400 448 400
WIRE 816 400 816 336
WIRE 816 400 800 400
WIRE 912 400 912 368
WIRE 336 512 336 400
WIRE 800 512 800 464
WIRE 800 512 336 512
WIRE 912 512 912 464
WIRE 912 512 800 512
FLAG -272 192 0
SYMBOL Misc\\NE555 608 240 R0
WINDOW 0 -1 -32 Center 2
SYMATTR InstName U1
SYMBOL polcap 896 400 R0
WINDOW 3 25 55 Left 2
SYMATTR Value 470µ
SYMATTR InstName C1
SYMATTR SpiceLine V=25 Irms=470m Rser=0.16 Lser=0 mfg="Nichicon" pn="UPR1E471MPH" type="Al electrolytic"
SYMATTR Description Capacitor
SYMATTR Type cap
SYMBOL polcap 784 400 R0
WINDOW 3 24 56 Left 2
SYMATTR InstName C2
SYMATTR Value 1µ
SYMATTR SpiceLine V=16 Irms=0 Rser=11 Lser=0 mfg="AVX" pn="TAJA105K016" type="Tantalum"
SYMATTR Description Capacitor
SYMATTR Type cap
SYMBOL res 896 48 R0
WINDOW 3 43 88 Left 2
SYMATTR Value 169K
SYMATTR InstName R1
SYMATTR SpiceLine tol=1 pwr=0.1
SYMBOL res 896 240 R0
SYMATTR InstName R2
SYMATTR Value 22.1K
SYMATTR SpiceLine tol=1 pwr=0.1
SYMBOL pnp 176 80 R180
SYMATTR InstName Q1
SYMATTR Value 2N3906
SYMBOL res 96 112 R0
SYMATTR InstName R3
SYMATTR Value 10
SYMATTR SpiceLine tol=1 pwr=0.1
SYMBOL res 304 208 R180
WINDOW 0 36 76 Left 2
WINDOW 3 36 40 Left 2
SYMATTR InstName R4
SYMATTR Value 1K
SYMATTR SpiceLine tol=1 pwr=0.1
SYMBOL PowerProducts\\LT1117-3.3 -400 -48 R0
SYMATTR InstName U2
SYMBOL Misc\\battery -624 0 R0
WINDOW 3 24 160 Left 2
WINDOW 123 0 0 Left 2
WINDOW 39 24 132 Left 2
SYMATTR Value 4.7
SYMATTR SpiceLine Rser=0.20
SYMATTR InstName V2
SYMBOL polcap -224 16 R0
WINDOW 3 24 56 Left 2
SYMATTR Value 22µ
SYMATTR InstName C3
SYMATTR Description Capacitor
SYMATTR Type cap
SYMATTR SpiceLine V=25 Irms=0 Rser=0.2 Lser=0 mfg="AVX" pn="TPSD226M025R0200" type="Tantalum"
SYMBOL res 272 -96 R0
SYMATTR InstName R5
SYMATTR Value 120K
SYMBOL load 32 256 R0
WINDOW 0 48 56 Left 2
WINDOW 3 48 28 Left 2
WINDOW 123 0 0 Left 2
WINDOW 39 48 84 Left 2
SYMATTR InstName I1
SYMATTR Value 0.2
SYMATTR SpiceLine load
SYMBOL diode 128 320 R180
WINDOW 0 24 64 Left 2
WINDOW 3 24 0 Left 2
SYMATTR InstName D1
SYMATTR Value 1N4148
TEXT -240 824 Left 2 !.tran 300 startup\n.options gmin=1e-6
